Bibliotecas/quadruplexneutroACSR.dss
!Este archivo .dss es generado automáticamente por el script calculoDeMatricesQUADOpenDSS.py

New Linecode.QDPX6ACSR nphases=4 units=mile
~ rmatrix=[ 4.3457 0.0953 0.0953 0.0953 | 0.0953 4.3457 0.0953 0.0953 | 0.0953 0.0953 4.4038 0.0953 | 0.0953 0.0953 0.0953 4.4038 ]
~ xmatrix=[ 1.5919 1.4213 1.4394 1.4394 | 1.4213 1.5919 1.4394 1.4394 | 1.4394 1.4394 1.5757 1.4394 | 1.4394 1.4394 1.4394 1.5757 ]
~ Normamps=75.0
~ kron=y

New Linecode.QDPX4ACSR nphases=4 units=mile
~ rmatrix=[ 2.767 0.0953 0.0953 0.0953 | 0.0953 2.767 0.0953 0.0953 | 0.0953 0.0953 2.8515 0.0953 | 0.0953 0.0953 0.0953 2.8515 ]
~ xmatrix=[ 1.5648 1.4017 1.4161 1.4161 | 1.4017 1.5648 1.4161 1.4161 | 1.4161 1.4161 1.5486 1.4161 | 1.4161 1.4161 1.4161 1.5486 ]
~ Normamps=100.0
~ kron=y

New Linecode.QDPX2ACSR nphases=4 units=mile
~ rmatrix=[ 1.7743 0.0953 0.0953 0.0953 | 0.0953 1.7743 0.0953 0.0953 | 0.0953 0.0953 1.8694 0.0953 | 0.0953 0.0953 0.0953 1.8694 ]
~ xmatrix=[ 1.537 1.381 1.392 1.392 | 1.381 1.537 1.392 1.392 | 1.392 1.392 1.5203 1.392 | 1.392 1.392 1.392 1.5203 ]
~ Normamps=135.0
~ kron=y

New Linecode.QDPX1/0ACSR nphases=4 units=mile
~ rmatrix=[ 1.146 0.0953 0.0953 0.0953 | 0.0953 1.146 0.0953 0.0953 | 0.0953 0.0953 1.2358 0.0953 | 0.0953 0.0953 0.0953 1.2358 ]
~ xmatrix=[ 1.5014 1.3505 1.3626 1.3626 | 1.3505 1.5014 1.3626 1.3626 | 1.3626 1.3626 1.4925 1.3626 | 1.3626 1.3626 1.3626 1.4925 ]
~ Normamps=180.0
~ kron=y

New Linecode.QDPX2/0ACSR nphases=4 units=mile
~ rmatrix=[ 0.9348 0.0953 0.0953 0.0953 | 0.0953 0.9348 0.0953 0.0953 | 0.0953 0.0953 1.0246 0.0953 | 0.0953 0.0953 0.0953 1.0246 ]
~ xmatrix=[ 1.4944 1.3404 1.3507 1.3507 | 1.3404 1.4944 1.3507 1.3507 | 1.3507 1.3507 1.4781 1.3507 | 1.3507 1.3507 1.3507 1.4781 ]
~ Normamps=205.0
~ kron=y

New Linecode.QDPX3/0ACSR nphases=4 units=mile
~ rmatrix=[ 0.7606 0.0953 0.0953 0.0953 | 0.0953 0.7606 0.0953 0.0953 | 0.0953 0.0953 0.8609 0.0953 | 0.0953 0.0953 0.0953 0.8609 ]
~ xmatrix=[ 1.4807 1.3295 1.3383 1.3383 | 1.3295 1.4807 1.3383 1.3383 | 1.3383 1.3383 1.4637 1.3383 | 1.3383 1.3383 1.3383 1.4637 ]
~ Normamps=235.0
~ kron=y

New Linecode.QDPX4/0ACSR nphases=4 units=mile
~ rmatrix=[ 0.6228 0.0953 0.0953 0.0953 | 0.0953 0.6228 0.0953 0.0953 | 0.0953 0.0953 0.7078 0.0953 | 0.0953 0.0953 0.0953 0.7078 ]
~ xmatrix=[ 1.466 1.318 1.3257 1.3257 | 1.318 1.466 1.3257 1.3257 | 1.3257 1.3257 1.4502 1.3257 | 1.3257 1.3257 1.3257 1.4502 ]
~ Normamps=275.0
~ kron=y

New Linecode.QDPX336ACSR nphases=4 units=mile
~ rmatrix=[ 0.4274 0.0953 0.0953 0.0953 | 0.0953 0.4274 0.0953 0.0953 | 0.0953 0.0953 0.4253 0.0953 | 0.0953 0.0953 0.0953 0.4253 ]
~ xmatrix=[ 1.4315 1.2876 1.2984 1.2984 | 1.2876 1.4315 1.2984 1.2984 | 1.2984 1.2984 1.4253 1.2984 | 1.2984 1.2984 1.2984 1.4253 ]
~ Normamps=370.0
~ kron=y

